13
Coordinates from ORCA-job run
  C   -0.48827337354884      0.18697977975542      0.90134577995331
  C   0.57438003673687      0.56540367557689     -0.12262417379659
  Cl  -1.35795824588209      1.61100946616025      1.42891659116534
  H   1.17234735098428      1.37407168260578      0.30975267548669
  H   -0.01782323651683     -0.29013173719232      1.76119346607732
  N   -1.43089073329908     -0.85451384941492      0.31498999151903
  O   -2.56009275033152     -0.92898648771555      0.76706761356330
  O   -0.91497986644773     -1.58145616677379     -0.52878950524208
  C   0.00894765637976      0.99689076011350     -1.39161525493475
  N   -0.46161912951558      1.39680209664876     -2.39022492953907
  N   1.57212970124793     -0.57104641979121     -0.31789594888400
  O   1.91866772367984     -1.13042189660106      0.71412611843783
  O   1.98316486651298     -0.77360090337174     -1.44724242380633
