13
Coordinates from ORCA-job run
  C   -0.46279588396067      0.22858734996648      0.90245787841431
  C   0.57168223293557      0.56241214586138     -0.16334775846548
  Cl  -1.34589463980873      1.66992345176102      1.36072812061510
  H   1.18896338906948      1.37899409075963      0.22558655795007
  H   0.02858658911769     -0.18780865734473      1.78152767050882
  N   -1.40596607257803     -0.85694295787961      0.40497423611448
  O   -0.95939816875458     -1.55552661671624     -0.50002608580252
  O   -2.47107112870656     -0.98600009433649      0.98395528539816
  C   -0.02239951975784      0.95982014455661     -1.43052603830735
  N   -0.52030752513852      1.33537883762352     -2.42524935699241
  N   1.55121950812271     -0.59077344253985     -0.34895251987124
  O   1.95574289031610     -0.80965616483575     -1.47766207059261
  O   1.89263832914339     -1.14740808687597      0.68653408103065
