13
Coordinates from ORCA-job run
  C   -0.50749519206743     -0.08991691132413      0.90299504877295
  C   0.55868243664575      0.59511238970708      0.05941211509835
  Cl  -1.45675121162821      1.10363327247616      1.76408160694605
  H   1.13126628992343      1.24898875268377      0.72552571351189
  H   -0.03911493063785     -0.76374673896252      1.62007746240582
  N   -1.39214317528954     -0.96779825796281      0.02994008954708
  O   -0.88510319658952     -1.32104211130175     -1.03051432978309
  O   -2.47535814016412     -1.29986492165242      0.48017966755772
  C   0.00489829979491      1.37696689532675     -1.03541346191578
  N   -0.46345740906266      2.05014155469702     -1.87560090639547
  N   1.58353361320555     -0.41455664701683     -0.44462899748086
  O   1.90042314477291     -1.27466016559911      0.36681511079152
  O   2.04161947109680     -0.24225711107122     -1.56086911905617
