13
Coordinates from ORCA-job run
  C   -0.39800384516743     -0.27779656956648      0.74835174432799
  C   0.41685588259184      0.39771225483763     -0.34667845819446
  Cl  -0.04484957468955      0.44012270854638      2.31052954542629
  H   0.26010626803975      1.47608216236262     -0.33278412823189
  H   -0.20794433567518     -1.34829903795571      0.78868055670866
  N   -1.86313274294635     -0.09573040341938      0.43810166629495
  O   -2.19662155910028      0.99799770452727     -0.00538546837917
  O   -2.58599393333186     -1.05438796053216      0.67897077901537
  C   0.10118860592646     -0.17224379299742     -1.65059192531619
  N   -0.17001868412713     -0.64510883880257     -2.69112890150772
  N   1.88262844590988      0.15339390979119     -0.05072601380869
  O   2.59543525540706      1.14516804755210      0.02125266332563
  O   2.21135021716280     -1.01791018434345      0.09140794033921
