13
Coordinates from ORCA-job run
  C   -0.50117562128469     -0.05081547623575      0.90791350121559
  C   0.57426202148472      0.59156181680244      0.04551130242933
  Cl  -1.49318674575310      1.18747956313280      1.65755221598462
  H   1.19938132724391      1.20163166448346      0.70714087129270
  H   -0.05218635369488     -0.66430915172185      1.68665261894024
  N   -1.36449237183769     -0.99292259813391      0.08928338209112
  O   -2.26076684504704     -1.55720235024927      0.69652904994190
  O   -1.05741839636642     -1.13615274674199     -1.09000944026885
  C   0.05203687404625      1.42491173055642     -1.02697861338294
  N   -0.36941547308925      2.15221214585572     -1.84641596374662
  N   1.51857901684555     -0.47329879575980     -0.49781468730200
  O   2.03135413449853     -0.26547794030406     -1.58407719564444
  O   1.72402843295412     -1.41761786168421      0.25471295844935
