13
conf-60.pdb
C         -1.04200       -0.04100        0.07700
C          0.40200        0.36900       -0.36000
Cl        -1.79000       -1.15500       -1.11400
H          0.84100        1.06800        0.38900
H         -1.67400        0.87400        0.06700
N         -1.15200       -0.60800        1.43300
O         -0.61600       -1.85300        1.46000
O         -0.45000        0.15700        2.30500
C          0.31200        1.14200       -1.68900
N         -0.23900        2.47200       -1.48300
N          1.27500       -0.81600       -0.50400
O          2.33500       -0.50200       -1.29200
O          1.79800       -1.10800        0.71200
