13
Coordinates from ORCA-job run
  C   -0.38645847320979     -0.33208190737474      0.73275480445190
  C   0.41317169926535      0.42039626886771     -0.32274973012976
  Cl  -0.00156615341762      0.26430629180655      2.33768728218828
  H   0.26230047371227      1.49518038800868     -0.22397840297920
  H   -0.20318943934836     -1.40362783603810      0.68862790962329
  N   -1.85547568256446     -0.11966783988069      0.46229403464392
  O   -2.18985658055419      1.00708274185951      0.11196443258828
  O   -2.57993863696278     -1.09119182957049      0.63833014944501
  C   0.07122705720936     -0.04708607848304     -1.66032233274733
  N   -0.22063794141556     -0.43814107738045     -2.72881657230572
  N   1.88236801485164      0.14844605959852     -0.07309297747192
  O   2.60190636385119      1.12897621827807      0.06044580282244
  O   2.20714929858297     -1.03159139969155     -0.02514440012919
