13
conf-17.pdb
C         -0.55500       -0.11500        0.90500
C          0.50300        0.53200       -0.01700
Cl        -1.76500        1.09700        1.45300
H          0.93500        1.38300        0.55900
H         -0.01800       -0.45200        1.82100
N         -1.19300       -1.28600        0.28200
O         -2.11400       -0.86900       -0.62200
O         -1.87000       -1.95700        1.24600
C         -0.13200        1.11000       -1.29600
N          0.78000        2.02300       -1.96500
N          1.58100       -0.43400       -0.30400
O          1.18900       -1.27500       -1.29400
O          2.66000        0.24400       -0.76600
