13
conf-14.pdb
C         -0.59200       -0.35100        0.70800
C          0.41900        0.39100       -0.20400
Cl        -0.28400        0.12100        2.41600
H          0.15800        1.47300       -0.16500
H         -0.43500       -1.45100        0.63200
N         -1.98100       -0.01100        0.35100
O         -2.29700       -0.64200       -0.80700
O         -2.80400       -0.53300        1.29400
C          0.30100       -0.09000       -1.66200
N          0.89500        0.87000       -2.57900
N          1.78900        0.21300        0.31300
O          2.21100       -1.04900        0.04900
O          2.62000        1.05800       -0.34600
