13
conf-04.pdb
C         -0.94400       -0.34400       -0.09200
C          0.34800        0.50300       -0.25000
Cl        -1.14800       -1.43000       -1.51000
H          0.51500        1.08600        0.68500
H         -1.82500        0.34000       -0.07100
N         -0.92500       -1.13500        1.14700
O         -0.95900       -0.27900        2.19800
O         -2.07300       -1.85400        1.20600
C          0.12500        1.49700       -1.40000
N          1.00000        2.65200       -1.27500
N          1.51900       -0.35000       -0.52900
O          1.75500       -1.12800        0.55600
O          2.61100        0.44100       -0.66500
