13
Coordinates from ORCA-job run
  C   -0.54481464885664      0.05452764294691      0.88554108351346
  C   0.59758385109968      0.55348168509832      0.01042052323636
  Cl  -1.41017233003521      1.40646828030964      1.58333272310607
  H   1.18609711154682      1.25570769567672      0.60977260926610
  H   -0.15038675996821     -0.57444298163079      1.68370586308968
  N   -1.47211197958254     -0.83964753788651      0.07473064080399
  O   -0.92071081571963     -1.43372821789467     -0.84709408236652
  O   -2.62986884776220     -0.94871403552847      0.43921047611123
  C   0.13651222394167      1.21201843408750     -1.20208269759075
  N   -0.25877078984662      1.79441604002852     -2.14171821350155
  N   1.57476101808357     -0.57233602485153     -0.30679931879634
  O   2.06794730581902     -0.59369527931427     -1.42136639253620
  O   1.82493466128029     -1.31505570104139      0.63334678566448
