13
conf-48.pdb
C         -0.51200       -0.35500        0.78100
C          0.41200        0.36000       -0.26300
Cl        -0.11900        0.14600        2.45200
H          0.35300        1.46100       -0.10100
H         -0.32100       -1.45000        0.73400
N         -1.95400       -0.11200        0.58800
O         -2.16600        1.19000        0.27000
O         -2.40700       -0.86200       -0.44600
C         -0.07300        0.09500       -1.69900
N          0.09500       -1.30500       -2.06000
N          1.81700       -0.07700       -0.12000
O          2.33300        0.46800        1.00800
O          2.54100        0.44200       -1.14400
