13
Coordinates from ORCA-job run
  C   -0.93782713326700     -0.13576204435910      0.05551271318879
  C   0.38282427094821      0.58613131782693     -0.19671121053968
  Cl  -1.30217048736117     -1.29471644810781     -1.19253230994931
  H   0.64902150208061      1.13998360641250      0.70877068231979
  H   -1.73864265585637      0.60423040878026      0.10234274983355
  N   -0.91913295838724     -0.75521035365053      1.45624249529572
  O   -1.22145719259922     -1.92434109413902      1.59609177482312
  O   -0.63371543174837      0.05490027470311      2.33000587762254
  C   0.27826242072315      1.48247137622569     -1.33749815528670
  N   0.14363984778221      2.23087117611669     -2.23241936742001
  N   1.49957264345085     -0.42331574691282     -0.39859000012617
  O   2.25380320001305     -0.26474108735741     -1.34630046323741
  O   1.54582197422131     -1.29950138553847      0.45508521347578
