13
Coordinates from ORCA-job run
  C   -0.41546259294687      0.03474845125344      0.95699040805133
  C   0.53641566138695      0.60953930162111     -0.08326122839536
  Cl  -1.30940535249304      1.32353162565722      1.73559245163698
  H   1.14579735449116      1.36923372412277      0.41716703507596
  H   0.14551717367042     -0.52088477022671      1.70819504595636
  N   -1.35466098768312     -0.97489844699741      0.31321140077304
  O   -2.39441703277699     -1.23353566655709      0.89455748178903
  O   -0.92518359898518     -1.49275715455542     -0.71339130086463
  C   -0.15085230184062      1.20292093575641     -1.21982869962435
  N   -0.68865946426463      1.71065016951833     -2.13167212924327
  N   1.54683755374730     -0.44025465151047     -0.53412776079761
  O   1.88019635048193     -0.43656071240500     -1.70623059318674
  O   1.98187723721269     -1.15073280567717      0.36279788882926
