13
Coordinates from ORCA-job run
  C   -0.46675463704507      0.21240467890169      0.90461574339946
  C   0.56707150460453      0.56894330767416     -0.15498640077205
  Cl  -1.35652653283666      1.64109390433710      1.38764860493691
  H   1.17374791431978      1.38847689156472      0.24411532838523
  H   0.02750701471678     -0.21694189891251      1.77592405253733
  N   -1.40352444356583     -0.86991105315533      0.38702257489766
  O   -2.48050321019802     -0.99921861395253      0.94321301044604
  O   -0.93832612072726     -1.56704392935733     -0.50967155025790
  C   -0.02896591504704      0.97182330155696     -1.41942537798521
  N   -0.52993181739982      1.35007137704358     -2.41160228178319
  N   1.56050807475606     -0.57107659854055     -0.34904255029889
  O   1.91389563518354     -1.12590017648643      0.68345859253742
  O   1.96180253323901     -0.78272119067352     -1.48026974604280
