13
Coordinates from ORCA-job run
  C   -0.94374029323472     -0.05839720272689      0.08379055595352
  C   0.42873342926580      0.57170922402046     -0.13319289429145
  Cl  -1.46615489780905     -0.98757958602573     -1.29375634661897
  H   0.77959239568138      0.96629351114620      0.82530416686495
  H   -1.66821825633857      0.73515055538271      0.27502642594982
  N   -0.93133126293166     -0.87307259703499      1.38114734832020
  O   -1.35317266445267     -2.01306562352545      1.37345344961366
  O   -0.52382964220793     -0.23141915889940      2.34222570284665
  C   0.36627803307609      1.62634772490464     -1.13299357523917
  N   0.26860033988513      2.50382022762113     -1.90726170095644
  N   1.43817687841924     -0.49248622242816     -0.52771753575197
  O   2.17780545231007     -0.26039618538238     -1.47170961217561
  O   1.42526048833688     -1.48790466705214      0.18468401548480
