13
conf-36.pdb
C         -0.47400       -0.39000        0.60400
C          0.40800        0.43300       -0.39100
Cl         0.04400       -0.07400        2.29800
H          0.16900        1.51200       -0.24200
H         -0.34200       -1.48000        0.41600
N         -1.89800       -0.03300        0.46300
O         -2.37300       -0.58200       -0.68200
O         -2.59100       -0.62200        1.46900
C          0.05600        0.08700       -1.83800
N          0.70600        1.00600       -2.75800
N          1.86300        0.23400       -0.22200
O          2.30400        0.97700        0.82200
O          2.12800       -1.06600        0.06100
