13
Coordinates from ORCA-job run
  C   -0.93397908229966     -0.15032582435557      0.07480371281167
  C   0.36898075332328      0.58238399291175     -0.23176490797094
  Cl  -1.29177101416946     -1.37822275946730     -1.10748751593166
  H   0.63532410516513      1.18688025570078      0.64062307871437
  H   -1.74852615182118      0.57572080691698      0.09497096115364
  N   -0.88599276142028     -0.69702272286445      1.50510066090023
  O   -1.16704241013298     -1.86208522739797      1.70851232907957
  O   -0.60349636770158      0.16131903013157      2.33254307374760
  C   0.23251829662972      1.41649453408555     -1.41547574884783
  N   0.07118959586816      2.11572965937006     -2.34502663155668
  N   1.50316221379305     -0.41460212169791     -0.39634080333497
  O   2.24390795036915     -0.28897362041690     -1.35942377513939
  O   1.57572487239666     -1.24629600291661      0.49896556637438
