13
conf-69.pdb
C         -1.04500        0.04700        0.10000
C          0.47100        0.42800        0.08200
Cl        -1.62700       -0.63000       -1.45300
H          0.74900        0.64700        1.13700
H         -1.62900        0.98100        0.25500
N         -1.40200       -0.88500        1.18300
O         -0.60400       -1.97900        1.12300
O         -1.17200       -0.28400        2.37600
C          0.75200        1.75600       -0.65200
N          0.25000        1.75800       -2.01700
N          1.33300       -0.68000       -0.37800
O          1.31100       -0.76200       -1.73100
O          2.61100       -0.39800       -0.02600
