13
conf-05.pdb
C         -0.58300        0.12100        0.69600
C          0.57600        0.38900       -0.30900
Cl        -1.33700        1.67700        1.17600
H          1.18000        1.25200        0.05900
H         -0.17500       -0.31900        1.63300
N         -1.60200       -0.77800        0.12900
O         -2.58600       -0.93200        1.04900
O         -1.04500       -2.00200       -0.03800
C          0.02300        0.73500       -1.70200
N         -0.42100        2.11800       -1.76500
N          1.45700       -0.78600       -0.41300
O          2.06800       -0.97000        0.78400
O          2.44300       -0.50400       -1.30000
