13
conf-61.pdb
C         -0.78400        0.11100        0.33900
C          0.66500        0.59300        0.00500
Cl        -1.90800        0.24700       -1.06000
H          1.20500        0.65000        0.97600
H         -1.19300        0.79000        1.12200
N         -0.78600       -1.26700        0.85400
O         -2.06700       -1.61300        1.13400
O         -0.12500       -1.27700        2.03800
C          0.69700        2.04100       -0.50400
N          0.34700        2.13700       -1.91200
N          1.44400       -0.29300       -0.88700
O          1.82800       -1.39100       -0.19000
O          0.67600       -0.72700       -1.91600
