13
Coordinates from ORCA-job run
  C   -0.49460266064666      0.17764598949222      0.89707555987746
  C   0.58061718422184      0.56650201319050     -0.10801561419265
  Cl  -1.38394636392945      1.59621516721628      1.41072859188751
  H   1.18772642970837      1.35334295101571      0.35174920565838
  H   -0.03829028763486     -0.29592960455358      1.76612601776707
  N   -1.42611658805465     -0.86727125864634      0.29998546933911
  O   -2.51545727989306     -1.01773885252901      0.82617434114911
  O   -0.94792936156959     -1.51772154648600     -0.62449267307075
  C   0.03619027225383      1.04355781337666     -1.36997409223016
  N   -0.42297783727487      1.48036623693298     -2.35829305757840
  N   1.56029349767300     -0.58100518875550     -0.32635702782463
  O   2.00343182456882     -0.73684082218151     -1.45101796017094
  O   1.86206117057728     -1.19912289807244      0.68631123938890
