13
Coordinates from ORCA-job run
  C   -0.41313440760716      0.05665040773152      0.95299432433486
  C   0.54246325491420      0.60412250042783     -0.09744645195586
  Cl  -1.31759461728500      1.36568737653890      1.68672839666445
  H   1.16337800150129      1.36264139258375      0.39085237199425
  H   0.14307595977169     -0.47285863269672      1.72594974774459
  N   -1.34803625772460     -0.97401001952458      0.33857931773608
  O   -2.34451676058833     -1.27320219353509      0.97446865794195
  O   -0.96377050905094     -1.46309401263055     -0.71957174842943
  C   -0.13758568603800      1.19377889545246     -1.24048436293683
  N   -0.68666548253061      1.72356180288525     -2.13279911525593
  N   1.53477248354757     -0.46666971173511     -0.53653053669615
  O   1.88177681892017     -0.46730032886671     -1.70485932975854
  O   1.94383720216973     -1.18930747663094      0.36311872861658
