13
conf-26.pdb
C         -0.53000       -0.40500        0.57800
C          0.49400        0.58500       -0.04300
Cl        -0.04200       -0.74900        2.27400
H          0.36100        1.55300        0.48900
H         -0.51200       -1.37300        0.02600
N         -1.89100        0.16000        0.56700
O         -2.35700        0.14000       -0.70600
O         -2.70100       -0.66800        1.27200
C          0.23200        0.88200       -1.53500
N          0.22000       -0.32900       -2.34200
N          1.88100        0.14000        0.19700
O          2.11600       -1.01200       -0.47900
O          2.72900        1.07500       -0.29900
