13
conf-28.pdb
C         -0.43600       -0.45100        0.37200
C          0.43600        0.64400       -0.31600
Cl        -0.08100       -0.57200        2.13100
H          0.20000        1.61800        0.16800
H         -0.19500       -1.44000       -0.07800
N         -1.86500       -0.18700        0.14600
O         -2.23300        0.90200        0.86700
O         -2.57300       -1.23700        0.63100
C          0.05200        0.82000       -1.78900
N          0.30700       -0.38900       -2.55700
N          1.89300        0.42000       -0.21700
O          2.31300        0.76900        1.02400
O          2.18100       -0.89500       -0.38200
