13
conf-47.pdb
C         -0.88700        0.06800        0.27300
C          0.63800        0.34100        0.13500
Cl        -1.75500        0.22800       -1.29300
H          1.05400        0.23700        1.16100
H         -1.31900        0.83200        0.96000
N         -1.12400       -1.27500        0.82700
O         -2.46400       -1.46000        0.92800
O         -0.64300       -1.30800        2.09400
C          0.98100        1.79900       -0.24000
N          0.51900        2.17400       -1.56600
N          1.31400       -0.66800       -0.70400
O          2.65400       -0.51200       -0.56200
O          1.03200       -0.45500       -2.01300
