13
Coordinates from ORCA-job run
  C   -0.93546940736747     -0.13667009076678      0.08145935520696
  C   0.37611297814189      0.57618757649467     -0.23569716005166
  Cl  -1.32049984193612     -1.36068197153138     -1.09615260542387
  H   0.65613007738732      1.18043441164783      0.63262794816617
  H   -1.73881439092543      0.60173744088249      0.10610345158315
  N   -0.88599117736806     -0.68129290658430      1.51253425110815
  O   -0.58653305984898      0.17473989804131      2.33639854678738
  O   -1.17971316161137     -1.84253465145474      1.71994055783496
  C   0.24171006787430      1.40734470028772     -1.42187710258464
  N   0.07839397261470      2.10340769392167     -2.35338654114794
  N   1.49578170883647     -0.43582417637838     -0.40419005148234
  O   1.55723556149305     -1.27296164145937      0.48680418470335
  O   2.24065667270971     -0.31288628310073     -1.36456483469967
