13
Coordinates from ORCA-job run
  C   -0.38451806649251     -0.31951209930582      0.73946656261363
  C   0.39143015169985      0.43091871382385     -0.33499129557578
  Cl  -0.09602582254869      0.39226443350871      2.31732804671175
  H   0.15923475194279      1.49521505857787     -0.30244465953957
  H   -0.12232025537030     -1.37520280041840      0.76238931066849
  N   -1.85584430667534     -0.23275757941755      0.41641720148749
  O   -2.51255266281124     -1.24451223794792      0.62754442936339
  O   -2.26027996448956      0.84491419744223     -0.00682198494868
  C   0.12794297266515     -0.13374884393146     -1.65256533664652
  N   -0.09998608540518     -0.60314967625542     -2.70500082845081
  N   1.86772080712072      0.28451502158891     -0.02874434842224
  O   2.27685714650453     -0.86330570327458      0.09575976052077
  O   2.50834133385978      1.32236151560957      0.06966314221807
