13
Coordinates from ORCA-job run
  C   -0.91291305981161     -0.18189558907622     -0.18991616704555
  C   0.37263217872082      0.62297775281967     -0.02285176153182
  Cl  -0.89135456853386     -1.16458803023210     -1.62768450904518
  H   0.37985677694633      1.05263619858717      0.98353070674662
  H   -1.75613108265855      0.50909558691796     -0.24095485423133
  N   -1.17322350060772     -0.99438068633670      1.08265723372438
  O   -1.41218803448855     -2.18295206453205      0.99373650757160
  O   -1.15791000612524     -0.30707168587864      2.09680780679717
  C   0.46908732086064      1.66869018710559     -1.02935920149411
  N   0.49925423044982      2.54090045355041     -1.81511937962233
  N   1.57756563550729     -0.29996709238810     -0.07949602094721
  O   1.49045400225085     -1.28514100863032      0.64192316090726
  O   2.51587010748976      0.02169597809332     -0.79227352182950
