13
conf-00.pdb
C         -0.82200       -0.27900       -0.21000
C          0.54100        0.47100       -0.20700
Cl        -0.93300       -1.34300       -1.65300
H          0.64800        1.05400        0.73700
H         -1.65000        0.46300       -0.28400
N         -1.00200       -1.07400        1.01300
O         -2.20000       -1.70400        0.93400
O         -1.09100       -0.22100        2.06400
C          0.57900        1.46600       -1.37500
N         -0.29400        2.60100       -1.12000
N          1.66800       -0.47000       -0.32700
O          1.73700       -1.21000        0.80700
O          2.82000        0.24600       -0.37800
