13
conf-56.pdb
C         -0.47100       -0.44000        0.90000
C          0.38000        0.19100       -0.25300
Cl        -0.13200        0.35100        2.46700
H          0.23600        1.29700       -0.23800
H         -0.17200       -1.50600        1.01700
N         -1.93000       -0.37500        0.69200
O         -2.30300       -1.32600       -0.19900
O         -2.27000        0.83000        0.17000
C         -0.10400       -0.35800       -1.60600
N          0.15600        0.58900       -2.67900
N          1.81200       -0.13100       -0.07200
O          2.29600        0.59500        0.96400
O          2.50200        0.28100       -1.16500
