13
Coordinates from ORCA-job run
  C   -0.40595743963084     -0.44681342082751      0.65746855785124
  C   0.43150082503664      0.45688307621271     -0.23783466689754
  Cl  -0.01589189001333     -0.17232143535279      2.34643126184099
  H   0.32008064336251      1.49992169432747      0.05763926385980
  H   -0.26066567726336     -1.49779021389557      0.41658849350375
  N   -1.86327853241829     -0.13294168999025      0.42698840577030
  O   -2.15218379259453      1.05050907334886      0.28541413756661
  O   -2.62517928593680     -1.09154170413527      0.42445560718181
  C   0.08554217179030      0.25891564250608     -1.63991300436641
  N   -0.20977314673720      0.08371942371732     -2.76324110802573
  N   1.88704492564539      0.08680753708527     -0.03925762442396
  O   2.16707273815059     -1.09312195682248     -0.21200404693769
  O   2.64168846060893      0.99677397382616      0.27626472307683
