13
conf-49.pdb
C         -0.54000        0.07700        0.78600
C          0.47800        0.67400       -0.23200
Cl        -1.58000        1.42400        1.38000
H          0.94700        1.55400        0.26400
H         -0.00300       -0.29900        1.68600
N         -1.35200       -1.00100        0.18800
O         -0.67500       -2.16700        0.32800
O         -2.49100       -1.15000        0.90800
C         -0.24300        1.20000       -1.47900
N          0.67100        1.95900       -2.31600
N          1.57600       -0.23500       -0.61700
O          1.09900       -1.24200       -1.39000
O          2.11400       -0.79500        0.49500
