13
Coordinates from ORCA-job run
  C   -0.92704325730484     -0.10291301340750      0.17462029760312
  C   0.37695696017295      0.57774138368889     -0.23147133478226
  Cl  -1.49697843232795     -1.21120226317662     -1.04195697918369
  H   0.77980216029300      1.09566501633863      0.64418244660814
  H   -1.68508604722899      0.66354303187555      0.34485886991840
  N   -0.75049338362425     -0.76355708144872      1.54581459373542
  O   -1.08293580721469     -1.92301060883332      1.69688686344341
  O   -0.31736900460487      0.00833880963666      2.39300799464922
  C   0.15997694448207      1.50881274070217     -1.32762851568588
  N   -0.06031521408921      2.28717849733891     -2.17888875604728
  N   1.41771162912520     -0.46514563525357     -0.60115529278022
  O   1.53909005542485     -1.36709079072449      0.21764283180687
  O   2.04868339689672     -0.30636008673658     -1.63491301928524
