13
conf-77.pdb
C         -0.93800        0.15300        0.34300
C          0.50100        0.66200       -0.03600
Cl        -2.00900       -0.16100       -1.06400
H          0.99700        0.95400        0.91600
H         -1.43100        0.99500        0.87500
N         -0.97400       -0.99700        1.26300
O         -0.12800       -0.77700        2.30000
O         -0.55000       -2.11400        0.62300
C          0.44200        1.98200       -0.81600
N          0.09000        1.77700       -2.21200
N          1.38800       -0.29300       -0.73300
O          1.92000       -1.15100        0.17200
O          0.69300       -1.03100       -1.63200
