13
conf-16.pdb
C         -0.41000       -0.57200        0.48000
C          0.36600        0.44700       -0.40600
Cl        -0.09800       -0.31200        2.23300
H          0.02300        1.47200       -0.13900
H         -0.06000       -1.59900        0.23300
N         -1.85200       -0.50600        0.19600
O         -2.46600       -1.50600        0.87400
O         -2.34500        0.66100        0.68200
C          0.01400        0.21900       -1.87700
N          0.55800        1.28400       -2.70500
N          1.83400        0.38300       -0.25800
O          2.24600       -0.90900       -0.23900
O          2.19100        0.93900        0.92500
