13
conf-68.pdb
C         -0.46600       -0.40800        0.85100
C          0.48900        0.14500       -0.26200
Cl        -0.13700        0.35000        2.43700
H          0.40000        1.25600       -0.31200
H         -0.26200       -1.49400        0.98000
N         -1.90400       -0.22500        0.57900
O         -2.12700        1.02400        0.09900
O         -2.30300       -1.10700       -0.37000
C          0.11100       -0.46000       -1.62700
N         -0.69200        0.46600       -2.41000
N          1.89100       -0.21300        0.04000
O          2.65900        0.07700       -1.04100
O          2.34200        0.58800        1.03600
