13
conf-01.pdb
C         -0.52200       -0.57700        0.58500
C          0.38800        0.37300       -0.22200
Cl        -0.40800       -0.21600        2.34300
H          0.02600        1.41200       -0.04900
H         -0.15900       -1.61900        0.43800
N         -1.91400       -0.49600        0.11600
O         -2.63200       -1.45000        0.75700
O         -2.43500        0.70200        0.48200
C          0.27200        0.05900       -1.72400
N          0.78100        1.15700       -2.52800
N          1.77800        0.26800        0.26000
O          2.50400        1.27900       -0.27700
O          2.32300       -0.89300       -0.18100
