13
conf-31.pdb
C         -0.36800       -0.51800        0.39800
C          0.57500        0.43000       -0.40800
Cl        -0.13100       -0.35900        2.17500
H          0.31100        1.48600       -0.17200
H         -0.12300       -1.57000        0.13000
N         -1.77600       -0.27700        0.04400
O         -2.53400       -1.22800        0.64300
O         -2.16200        0.91700        0.55800
C          0.38700        0.22500       -1.91500
N         -0.78900        0.93000       -2.40100
N          2.00900        0.24000       -0.11400
O          2.30300        0.80700        1.08100
O          2.29700       -1.08300       -0.01700
