13
Coordinates from ORCA-job run
  C   -0.55727785908861      0.02608447883944      0.88218765434883
  C   0.58918690226794      0.56256210659977      0.03259446481215
  Cl  -1.43795259023806      1.34357054021406      1.62109674825497
  H   1.15262614379851      1.27048382341624      0.64852248186832
  H   -0.16189266945711     -0.62929219712426      1.65829236189320
  N   -1.46557270619971     -0.84606826712979      0.02561849349354
  O   -0.86582146838994     -1.48459451940398     -0.83404540509662
  O   -2.65395051714985     -0.89209100760963      0.28967187738068
  C   0.12849102926157      1.22081334500650     -1.18017852679015
  N   -0.27510458817030      1.79092812263930     -2.12399098063418
  N   1.59589160636320     -0.53862620519343     -0.28217575224417
  O   1.87378979282490     -1.26183346308912      0.66507937708720
  O   2.07758692417747     -0.56193675716507     -1.40167279437376
