13
conf-38.pdb
C         -0.61900        0.07100        0.72500
C          0.64400        0.45900       -0.09500
Cl        -1.46200        1.57000        1.25100
H          1.06700        1.37500        0.38000
H         -0.30200       -0.44600        1.66000
N         -1.53600       -0.79300       -0.04000
O         -1.02000       -2.04500       -0.06600
O         -2.70500       -0.88800        0.64000
C          0.32500        0.81000       -1.56100
N         -0.38500        2.07500       -1.65700
N          1.67400       -0.59400       -0.00000
O          1.44500       -1.55400       -0.93000
O          2.87400       -0.04000       -0.30600
