13
conf-32.pdb
C         -1.03200       -0.09200       -0.03300
C          0.44000        0.41700       -0.14300
Cl        -1.49900       -1.14600       -1.40400
H          0.61400        1.11800        0.70500
H         -1.70200        0.79300       -0.10100
N         -1.33800       -0.77100        1.23800
O         -0.56700       -1.87800        1.36400
O         -1.02800        0.05500        2.26800
C          0.65800        1.22300       -1.43500
N         -0.07400        2.47900       -1.39500
N          1.41500       -0.68300       -0.03000
O          1.46900       -1.37100       -1.19800
O          2.64400       -0.14300        0.16400
