13
conf-29.pdb
C         -0.88600       -0.27900        0.10600
C          0.28800        0.64700       -0.34500
Cl        -1.40100       -1.41000       -1.19500
H          0.39700        1.44100        0.42900
H         -1.76800        0.37200        0.30900
N         -0.55400       -1.02600        1.32800
O         -1.62300       -1.79000        1.66000
O         -0.39800       -0.13500        2.33800
C         -0.07700        1.36800       -1.64400
N          0.91000        2.38900       -1.95800
N          1.59500       -0.02500       -0.49900
O          1.46500       -1.14700       -1.24800
O          2.05200       -0.40400        0.71900
