13
Coordinates from ORCA-job run
  C   -0.93667333194530     -0.10068635934859      0.12493222597215
  C   0.38779468083661      0.56924527732944     -0.22970034491890
  Cl  -1.43568476508267     -1.25087949227374     -1.08376278015600
  H   0.73991979897288      1.11840406589388      0.64887066075926
  H   -1.70308910241150      0.66980686790937      0.22551827202722
  N   -0.83809494795171     -0.71350780916354      1.52539324100521
  O   -1.17708226414636     -1.86824612876911      1.69679012495098
  O   -0.45541463945351      0.08838474449701      2.36903308101255
  C   0.23369786653985      1.46269673452505     -1.36715919414996
  N   0.07614736577527      2.22124348216532     -2.24967634502030
  N   1.44825610738618     -0.48293922194375     -0.50415907004821
  O   2.13733929345946     -0.35767963932414     -1.50491976958122
  O   1.52288393802080     -1.35684252149717      0.34983989814721
