13
conf-03.pdb
C         -0.63000        0.08700        0.80100
C          0.43900        0.47800       -0.25600
Cl        -1.45900        1.57800        1.36200
H          1.05100        1.30800        0.16900
H         -0.13500       -0.35100        1.69700
N         -1.61600       -0.86200        0.25900
O         -2.55300       -1.08800        1.21300
O         -0.99800       -2.05000        0.05000
C         -0.26700        0.97900       -1.52600
N          0.60200        1.84900       -2.30100
N          1.31800       -0.66300       -0.57100
O          2.26100       -0.25200       -1.45400
O          1.98600       -1.01100        0.55600
