13
conf-11.pdb
C         -0.54300       -0.45600        0.46900
C          0.46800        0.55200       -0.12900
Cl        -0.41400       -0.48100        2.26200
H          0.21800        1.55200        0.28900
H         -0.28400       -1.47700        0.11100
N         -1.91400       -0.14100        0.03800
O         -2.73100       -1.13100        0.47300
O         -2.31800        1.00000        0.64900
C          0.33100        0.68600       -1.66000
N          0.43000       -0.59900       -2.33500
N          1.84600        0.23200        0.28900
O          2.67300        1.19900       -0.17900
O          2.23800       -0.93600       -0.27700
