13
Coordinates from ORCA-job run
  C   -0.50645764520418      0.17181806712648      0.89277779062422
  C   0.56809251150089      0.57749604283222     -0.10738945761574
  Cl  -1.41907537370061      1.57548928557404      1.40434377095181
  H   1.14737921568493      1.38841018372391      0.34595277512552
  H   -0.04582244399615     -0.29641048922151      1.76262312573291
  N   -1.41559619492683     -0.88766952613359      0.28630992479567
  O   -2.53500179646824     -1.01414949792781      0.75155690277483
  O   -0.88743246424290     -1.57296224331699     -0.58416943025928
  C   0.01967547016730      1.01821325870811     -1.38074232947002
  N   -0.44665740829708      1.42368183252179     -2.37911094787855
  N   1.58377488091515     -0.54321039253500     -0.29965203003860
  O   2.02574363208661     -0.71741824147825     -1.42213054087110
  O   1.91037761648110     -1.12128827987340      0.72863044612833
