13
Coordinates from ORCA-job run
  C   -0.42402244121262     -0.46976396814569      0.62900023064375
  C   0.42674916533634      0.47443037439452     -0.21024664474594
  Cl  -0.13396536362628     -0.20366429274638      2.33921148146391
  H   0.26001436988674      1.50905263291439      0.08893509682434
  H   -0.22976342649702     -1.51195578185834      0.38447516153643
  N   -1.87755089856400     -0.20392936709039      0.32429033248047
  O   -2.60275405791639     -1.18904553992966      0.26635644448239
  O   -2.20144810794313      0.97064656995429      0.18405317925080
  C   0.16561611946167      0.28004996526232     -1.63099288725273
  N   -0.06225386480239      0.10888691148012     -2.77054041141180
  N   1.88185624424454      0.15620620622516      0.06541148409561
  O   2.58298727431956      1.08987111634671      0.43108022162796
  O   2.21453498731299     -1.01078482680705     -0.10103368899520
