13
Coordinates from ORCA-job run
  C   -0.40110027140313     -0.53907521502243      0.58535981291894
  C   0.41473848671800      0.50135464129730     -0.17044222868282
  Cl  -0.07540990104317     -0.44430949017864      2.30742983146309
  H   0.24117784999424      1.49651016946880      0.23851055345597
  H   -0.19472741530276     -1.54705421939685      0.23143367387584
  N   -1.86629538515099     -0.27261731818666      0.34380693930659
  O   -2.21006708067921      0.90424367013267      0.30427686653383
  O   -2.58022271048190     -1.26173057618134      0.23617241487214
  C   0.12114246762889      0.45356556469043     -1.59734973978718
  N   -0.13294279381911      0.40529653253745     -2.74298332739832
  N   1.88040354656382      0.18044273916713      0.03728641197338
  O   2.57525912836261      1.08026159595294      0.48994437608811
  O   2.22704407861271     -0.95488809428078     -0.26344558461956
