13
Coordinates from ORCA-job run
  C   -0.92146573877556     -0.18097261702628     -0.13256602991925
  C   0.38076057068806      0.61337281137160     -0.08924795874469
  Cl  -0.97737347985767     -1.27694185578846     -1.48538812626823
  H   0.43853368276237      1.12379634611558      0.87700659249459
  H   -1.75652015368745      0.51819299704289     -0.20368115560434
  N   -1.13543579639872     -0.88308940032422      1.21150879510179
  O   -1.40478720771322     -2.06846395506927      1.22916862046632
  O   -1.05782283857919     -0.11811507940522      2.16542744600544
  C   0.44338737972067      1.57038762703789     -1.18296552637005
  N   0.43454560879452      2.36343882666974     -2.04895122478316
  N   1.57061431697998     -0.32952496218579     -0.12188338103047
  O   1.49912261657603     -1.25816744381240      0.67251801364246
  O   2.48544103949017     -0.07391329462604     -0.88994606499040
