13
conf-08.pdb
C         -0.97700       -0.33600        0.05500
C          0.30200        0.49500       -0.21200
Cl        -1.23500       -1.55900       -1.23600
H          0.32500        1.30100        0.55700
H         -1.85600        0.35000        0.03600
N         -0.90400       -1.00300        1.36300
O         -2.05400       -1.69900        1.54500
O         -0.88200       -0.05000        2.32700
C          0.21900        1.18700       -1.58400
N          1.23600        2.21800       -1.71100
N          1.50900       -0.34200       -0.06100
O          1.73800       -1.03300       -1.20600
O          2.57800        0.47100        0.12800
