13
Coordinates from ORCA-job run
  C   -0.87896812310828      0.13690799046970      0.32942793459339
  C   0.53964661436265      0.47249602353284     -0.12198634684091
  Cl  -1.92778945694217     -0.22556749375448     -1.01275961446269
  H   1.18546894945118      0.48715027466223      0.76126926739885
  H   -1.28285234939848      0.98803741846496      0.88032802767234
  N   -0.82945110254615     -0.98934119917749      1.36701993815143
  O   -1.54719019834536     -1.96061986157161      1.22813575054483
  O   -0.06747517526013     -0.74707054091163      2.29534107984372
  C   0.57851396648562      1.75282834414705     -0.81118282249280
  N   0.58149029196791      2.81285809443058     -1.31650353296815
  N   1.08248479123378     -0.63800203709225     -1.00444334919770
  O   0.94416193039651     -1.76221426644614     -0.53995201151658
  O   1.62095986170292     -0.32646274675375     -2.05569432072574
