13
Coordinates from ORCA-job run
  C   -0.50398362628012      0.16104128280558      0.89506619906985
  C   0.57681005234827      0.57242731391516     -0.09517306206675
  Cl  -1.40692201788758      1.56578254744861      1.42273172109593
  H   1.17199377753456      1.35905870836074      0.38001211707725
  H   -0.05166876204693     -0.32329435990621      1.76019998950598
  N   -1.42308305636873     -0.88079315641373      0.27387917168634
  O   -0.92688013803127     -1.52145712199234     -0.64790976872051
  O   -2.52047094351486     -1.03993504010532      0.78035402594316
  C   0.03835222094818      1.05867058080590     -1.35619058377941
  N   -0.41657396465407      1.50263773694234     -2.34327958110875
  N   1.56972556361318     -0.56292214640576     -0.31845328984502
  O   2.02281146875285     -0.70264138482295     -1.44122549754825
  O   1.86988942558653     -1.18857496063201      0.68998855869017
