13
conf-62.pdb
C         -0.76800        0.07700        0.14100
C          0.63600        0.59500       -0.30500
Cl        -1.67400       -0.77900       -1.16200
H          1.00100        1.28900        0.48700
H         -1.37100        0.98900        0.35400
N         -0.69600       -0.71200        1.38300
O         -1.91600       -0.67900        1.97500
O         -0.45200       -2.01100        1.07900
C          0.53900        1.41800       -1.59300
N         -0.17900        2.66200       -1.36500
N          1.66600       -0.44300       -0.49500
O          2.04500       -0.92600        0.71400
O          1.16800       -1.48000       -1.21200
