13
Coordinates from ORCA-job run
  C   -0.38901249961978     -0.52914345219293      0.60638061543993
  C   0.39147753191970      0.51314795355755     -0.18385662765627
  Cl  -0.12287390773328     -0.32233746229828      2.32842624835884
  H   0.15057982734669      1.51745043136905      0.16418539244535
  H   -0.11757407818691     -1.54147391500485      0.31430525528398
  N   -1.85699498235133     -0.35555509133522      0.30396639420953
  O   -2.50386891435681     -1.38675380129748      0.16991789203617
  O   -2.26860243989455      0.79786488524231      0.23883717326119
  C   0.14415458268267      0.36931120073684     -1.61305292225741
  N   -0.07186752445492      0.23774162491686     -2.76015282204378
  N   1.86600112263013      0.28842034057272      0.08040637012634
  O   2.49857358513383      1.25306084469897      0.48826326454781
  O   2.28200769688455     -0.84273355896554     -0.13762623375169
