13
conf-35.pdb
C         -1.15600       -0.18500        0.11000
C          0.23000        0.45600       -0.19200
Cl        -1.64900       -1.36900       -1.14100
H          0.44300        1.17500        0.63200
H         -1.91800        0.62500        0.07000
N         -1.25000       -0.81100        1.44100
O         -0.96800        0.11700        2.38700
O         -0.32200       -1.79300        1.55200
C          0.15100        1.27800       -1.49100
N          1.30200        2.15500       -1.62500
N          1.30300       -0.55900       -0.23000
O          2.49500        0.06400       -0.06200
O          1.33800       -1.15200       -1.45100
