13
conf-13.pdb
C         -0.48100       -0.02400        0.75900
C          0.58100        0.39900       -0.29100
Cl        -1.56700        1.33500        1.21800
H          1.17400        1.24700        0.12800
H          0.06600       -0.28300        1.69300
N         -1.23600       -1.20900        0.31900
O         -1.90400       -1.70300        1.39100
O         -2.17400       -0.83300       -0.58500
C         -0.07700        0.85900       -1.60200
N         -0.46300        2.26000       -1.53500
N          1.49000       -0.72300       -0.57600
O          2.41600       -0.30400       -1.47500
O          2.17300       -1.02100        0.55700
