14
Coordinates from ORCA-job run
  C   0.63540395298313      0.54594234470802      0.07288453302613
  C   -0.73122570803786     -0.04995586704206     -0.28314786897057
  Cl  0.57065611956784      1.35802740917409      1.65678203236592
  H   -0.58048445690709     -0.57644829176649     -1.24149347757230
  H   0.84823020327471      1.32906372641000     -0.66173805235244
  C   1.73738084808277     -0.49676889275943      0.06840244891676
  H   2.70105666518314     -0.02743136690509      0.26827865758352
  H   1.78863575167123     -0.99198474795085     -0.90559493495333
  H   1.55698554384876     -1.24869082751896      0.83866668223225
  N   -1.76121285521964      0.97724238399033     -0.33926119866953
  H   -1.55710257098731      1.61806544937288     -1.09738480160433
  H   -2.66480264635912      0.55706143546634     -0.51877448620382
  C   -1.11581443831033     -1.07528379394399      0.69494925769988
  N   -1.42770640879023     -1.92083896123480      1.44643120850184
