14
conf-11.pdb
C          0.68100       -0.34400       -0.42900
C         -0.80500        0.09300       -0.38800
Cl         1.31400       -0.23700       -2.10100
H         -0.87800        1.15100       -0.72800
H          0.76900       -1.40100       -0.09800
C          1.56800        0.51800        0.47500
H          1.44200        1.59500        0.23400
H          1.32100        0.34700        1.54300
H          2.63400        0.24300        0.33100
N         -1.34900       -0.01200        0.97100
H         -0.96300        0.77200        1.54500
H         -2.38000        0.16400        0.93200
C         -1.65300       -0.74900       -1.35200
N         -1.70100       -2.14200       -0.93400
