14
Coordinates from ORCA-job run
  C   0.71262383051255     -0.28781343850725     -0.41225837628439
  C   -0.74646973261339      0.15200250814012     -0.23406947936545
  Cl  1.15540547668149     -0.08717352271961     -2.13396156344790
  H   -0.80524981137334      1.20922057686451     -0.51324283034324
  H   0.78827330133656     -1.35917113040976     -0.20499081017342
  C   1.66066381798907      0.50400419145545      0.46476757319688
  H   1.39091159448494      0.37179057957197      1.51196900823838
  H   1.60319767439173      1.56674677946253      0.21842359496074
  H   2.68698910358040      0.17000776277379      0.30668809734468
  N   -1.12515629893338      0.02738487307230      1.16923218811118
  H   -1.28021999680302     -0.94837880219830      1.39778255907430
  H   -1.99604673832373      0.51714949325167      1.33573602014072
  C   -1.64146412275476     -0.60235235924637     -1.13514590940173
  N   -2.40145809817512     -1.23341751151106     -1.77093007205075
