14
Coordinates from ORCA-job run
  C   0.65844125470274      0.04161213922679     -0.65695271085256
  C   -0.88076479752873     -0.00573605436469     -0.52326092280035
  Cl  1.09418750068071      1.63700222485289     -1.35194724715006
  H   -1.29852411478849      0.18684826635066     -1.51736895548876
  H   0.96187231674663     -0.69720111225549     -1.40259994148243
  C   1.39902667179115     -0.17663932044662      0.64587481162699
  H   1.13849130825661     -1.15124833585215      1.06686791774160
  H   2.47596842895895     -0.15128529296758      0.47709399446867
  H   1.15686388965205      0.60373553894339      1.36895583042875
  N   -1.50125129353660      0.92795088283011      0.39719006268899
  H   -1.18920997739185      0.76704859900063      1.34635312446021
  H   -1.26890350616231      1.87696291439633      0.13170879539101
  C   -1.25279537246635     -1.37750381328097     -0.14711466625451
  N   -1.49340230891450     -2.48254663643329      0.16719990722245
