14
Coordinates from ORCA-job run
  C   0.68369198665157      0.44143656281805     -0.19835578098551
  C   -0.76804968924142     -0.05038842881727     -0.17422992382295
  Cl  0.91209887625553      1.77779959154958      0.95655777377704
  H   -0.79961772842564     -0.90226484068837     -0.87531910318441
  H   0.86506764921847      0.86340118655608     -1.19209707361529
  C   1.67409110159272     -0.67093274247836      0.09091375076954
  H   1.54610600224099     -1.48928656154720     -0.62354502727574
  H   1.53226037683080     -1.05759635902553      1.10167483056371
  H   2.69501016568635     -0.29699233910979      0.00847870023916
  N   -1.69726837416624      1.01739411915220     -0.51481742060851
  H   -2.65088582520659      0.68102632312896     -0.45904212977714
  H   -1.52702153761677      1.32238991829601     -1.46620964850678
  C   -1.10505890542145     -0.58850579549477      1.14916349327036
  N   -1.36142409839832     -1.04848063433958      2.19782755915650
