14
Coordinates from ORCA-job run
  C   0.70314699595484      0.03527168038066     -0.64256262416051
  C   -0.81949233176809     -0.03454549200546     -0.44906163948030
  Cl  1.08259642112386      1.62563194342438     -1.38961912442657
  H   -1.28197856564688      0.11580769301075     -1.43662776096636
  H   0.98522529066953     -0.70902798062312     -1.39013514794842
  C   1.49159476124850     -0.14731858299355      0.63678504119256
  H   2.56049565961705     -0.07598924420199      0.43177075014028
  H   1.28368758404357     -1.13452096241790      1.05743734270618
  H   1.21263615598515      0.60844228773710      1.36872833019401
  N   -1.25740342878068      0.92135533017805      0.56112785787291
  H   -1.10151804437658      1.85954249126462      0.21051257043472
  H   -2.24984966498590      0.81293360463016      0.73208825159540
  C   -1.16817479872618     -1.39296313336303     -0.01165019630485
  N   -1.44096603435818     -2.48461963502066      0.32220634915095
