14
conf-26.pdb
C          0.65500        0.05100       -0.69100
C         -0.89500       -0.06100       -0.66700
Cl         1.14600        1.63000       -1.37300
H         -1.25500        0.28400       -1.66000
H          1.05000       -0.72500       -1.38300
C          1.34000       -0.13700        0.66800
H          1.05500        0.67000        1.37500
H          2.44200       -0.09700        0.53300
H          1.09400       -1.12300        1.10800
N         -1.53100        0.78900        0.34700
H         -1.22000        1.77800        0.21100
H         -1.24100        0.49400        1.30600
C         -1.38600       -1.51100       -0.56100
N         -1.25400       -2.04300        0.78600
