14
conf-00.pdb
C          0.79900       -0.33800       -0.40600
C         -0.69800        0.02500       -0.32100
Cl         1.38100       -0.20600       -2.09400
H         -0.82900        1.06700       -0.69300
H          0.94600       -1.39000       -0.07400
C          1.65600        0.57500        0.47500
H          1.38600        0.45200        1.54500
H          1.51700        1.63800        0.18500
H          2.72900        0.31100        0.36100
N         -1.15900       -0.04700        1.06800
H         -1.18200       -1.04700        1.37500
H         -2.13600        0.32300        1.12300
C         -1.52100       -0.92100       -1.20500
N         -2.88700       -0.44200       -1.33900
