14
Coordinates from ORCA-job run
  C   0.67280547606196      0.47107058809921     -0.18557480377521
  C   -0.75190008363767     -0.09455264303771     -0.20170658643452
  Cl  0.78798965289092      1.84527267461820      0.94139110184091
  H   -0.71216144162110     -0.96771779688883     -0.87569641105275
  H   0.87121455265399      0.87723241367402     -1.18252618615141
  C   1.70541132789641     -0.58172380326882      0.17138790324265
  H   2.70930469123591     -0.15997909042459      0.11431608612492
  H   1.64415427791321     -1.42529098874725     -0.52230782687125
  H   1.54545412687507     -0.94680491256148      1.18752621320219
  N   -1.71958989961302      0.91311757904710     -0.61129500740307
  H   -1.54334817863580      1.17809765140759     -1.57352797030368
  H   -2.65893482507584      0.53873155499363     -0.55614323300377
  C   -1.11709817181497     -0.60943237113501      1.12354581037966
  N   -1.43330150512909     -1.03702085577604      2.16961091020532
