14
conf-23.pdb
C          0.53300        0.44900        0.14100
C         -0.71900       -0.21200       -0.49800
Cl         0.27700        0.94200        1.84400
H         -0.45200       -0.46900       -1.54700
H          0.76300        1.37400       -0.43000
C          1.76200       -0.45900        0.05600
H          1.95700       -0.74700       -0.99900
H          2.65500        0.07900        0.44000
H          1.61600       -1.37700        0.66200
N         -1.86000        0.70700       -0.55500
H         -2.08300        1.06200        0.40200
H         -1.59500        1.53400       -1.13800
C         -1.12300       -1.54000        0.15900
N         -1.73300       -1.34300        1.46400
