14
conf-04.pdb
C          0.73700       -0.33200       -0.40100
C         -0.79500       -0.10000       -0.39900
Cl         1.37500       -0.23200       -2.07100
H         -1.00600        0.89900       -0.84300
H          0.96200       -1.35100       -0.01400
C          1.48300        0.69000        0.46100
H          2.58000        0.55200        0.34800
H          1.22100        1.72500        0.15400
H          1.23800        0.55100        1.53400
N         -1.35700       -0.15100        0.95500
H         -0.95300       -0.96300        1.47700
H         -1.10500        0.72500        1.46700
C         -1.48400       -1.16000       -1.25600
N         -2.89700       -0.85200       -1.41100
