14
Coordinates from ORCA-job run
  C   0.63433936942536      0.42323540183251     -0.14241588702779
  C   -0.79936489746764     -0.11383737435722     -0.30751947584250
  Cl  0.66273076207365      1.65759582192457      1.15392383990644
  H   -0.75816985399754     -0.83396187587204     -1.13528429683113
  H   0.88640456919076      0.95610750120918     -1.06401174089140
  C   1.65089144067758     -0.66207096041149      0.14975220256101
  H   1.43770646126435     -1.14256071366422      1.10595055929706
  H   2.65707417909606     -0.24323183535894      0.19042528751040
  H   1.62326498982639     -1.42006269700234     -0.63888460558898
  N   -1.83343747288088      0.85309109946437     -0.62729842621644
  H   -1.86303482450837      1.57408019912944      0.08378505634382
  H   -1.62853090246680      1.29258427551925     -1.51671447114907
  C   -1.19218659257461     -0.86801863288206      0.89206097301562
  N   -1.47968722765832     -1.47195020953103      1.85623098491297
