14
conf-09.pdb
C          0.79800       -0.33900       -0.45200
C         -0.72900       -0.14100       -0.30200
Cl         1.29400       -0.07900       -2.15300
H         -0.99100        0.89600       -0.61900
H          1.06400       -1.38300       -0.17400
C          1.60500        0.61700        0.43200
H          2.68800        0.52000        0.20500
H          1.46800        0.37000        1.50500
H          1.29600        1.67000        0.25300
N         -1.14400       -0.35300        1.08900
H         -2.18900       -0.34500        1.13900
H         -0.84500        0.47400        1.65400
C         -1.45800       -1.13600       -1.21200
N         -2.85600       -0.77000       -1.36400
