14
conf-24.pdb
C          0.69300        0.36600       -0.27000
C         -0.73400       -0.23500       -0.30000
Cl         0.82300        1.81300        0.77700
H         -0.70500       -1.08800       -1.01400
H          0.94500        0.69500       -1.30200
C          1.74200       -0.66500        0.15300
H          1.58100       -0.98100        1.20500
H          1.69400       -1.55800       -0.50700
H          2.75800       -0.22500        0.06800
N         -1.70000        0.73500       -0.82500
H         -1.83000        1.51700       -0.14400
H         -2.62700        0.25900       -0.92900
C         -1.19400       -0.82900        1.04500
N         -1.44600        0.19600        2.04400
