14
conf-12.pdb
C          0.65800        0.46900       -0.17200
C         -0.82400        0.03400       -0.07400
Cl         0.99200        1.89600        0.85600
H         -0.98200       -0.86400       -0.71600
H          0.86500        0.76700       -1.22400
C          1.63300       -0.65800        0.17800
H          1.40600       -1.56600       -0.41900
H          1.58100       -0.90500        1.25900
H          2.67100       -0.33900       -0.05500
N         -1.68700        1.10700       -0.56900
H         -2.67900        0.77500       -0.53800
H         -1.47100        1.26700       -1.58000
C         -1.23200       -0.29900        1.36700
N         -0.93200       -1.68500        1.68800
