14
conf-16.pdb
C          0.61700        0.48600        0.11500
C         -0.72100       -0.14500       -0.34600
Cl         0.51600        1.17200        1.76600
H         -0.59500       -0.45400       -1.40900
H          0.85200        1.33100       -0.56800
C          1.78300       -0.50300        0.03600
H          2.73500        0.01900        0.27200
H          1.86100       -0.92500       -0.98800
H          1.64700       -1.33200        0.76200
N         -1.80700        0.83600       -0.27600
H         -1.57200        1.63400       -0.91000
H         -2.67100        0.39800       -0.67200
C         -1.09200       -1.41400        0.43600
N         -1.55300       -1.10500        1.78100
