14
conf-13.pdb
C          0.62000       -0.33400       -0.39000
C         -0.85500        0.13500       -0.50200
Cl         1.37400       -0.39500       -2.01300
H         -0.86800        1.14800       -0.96200
H          0.66000       -1.35800        0.04100
C          1.45600        0.59400        0.49500
H          2.52100        0.27800        0.47500
H          1.38800        1.64300        0.13600
H          1.11200        0.54400        1.54900
N         -1.51900        0.20900        0.80400
H         -1.18400        1.05900        1.31200
H         -1.26700       -0.62800        1.38000
C         -1.67000       -0.77300       -1.42900
N         -1.76900       -2.12300       -0.89600
