14
Coordinates from ORCA-job run
  C   0.62247795811741      0.44314688046075     -0.13448127587655
  C   -0.78538997586150     -0.15038117062232     -0.32701649363960
  Cl  0.56874930440785      1.70603835380046      1.13322824608384
  H   -0.69399070296119     -0.88584260709807     -1.13705022389662
  H   0.88104252102538      0.96439285004408     -1.06093021635556
  C   1.66928243971780     -0.59686790533284      0.21069762976852
  H   2.65771954067386     -0.13984700336001      0.27002777900109
  H   1.69232992658962     -1.37225843940881     -0.56094731554348
  H   1.44641847360025     -1.06418522358627      1.17115863264479
  N   -1.84464799985824      0.77026560722191     -0.69707522898427
  H   -1.63005976062051      1.19861388888363     -1.58970057998063
  H   -1.92151810085453      1.50433333611382     -0.00301746085672
  C   -1.18437464285247     -0.89261708737769      0.87793982842164
  N   -1.47703898112373     -1.48579147973862      1.84716667921354
