14
conf-18.pdb
C          0.68000        0.39400       -0.30100
C         -0.79900       -0.05200       -0.20200
Cl         0.96200        1.96200        0.51900
H         -0.89200       -1.06500       -0.65600
H          0.92500        0.53700       -1.37600
C          1.65000       -0.65200        0.25300
H          1.54900       -0.74300        1.35400
H          2.69400       -0.35000        0.02500
H          1.46400       -1.64100       -0.21700
N         -1.64000        0.85500       -0.98700
H         -2.60800        0.45900       -1.02800
H         -1.70800        1.77900       -0.50100
C         -1.30700       -0.10700        1.24700
N         -0.97100       -1.37700        1.87000
