14
Coordinates from ORCA-job run
  C   0.70226559965691     -0.27846458660531     -0.47671574478853
  C   -0.77758529828353      0.05348816142291     -0.24175322762612
  Cl  1.09081355178280      0.06252593672669     -2.19006895859572
  H   -0.94346450409585      1.08826132220237     -0.57672545047072
  H   0.84104588069493     -1.35067420324164     -0.32766561912423
  C   1.61505097655069      0.51754586350003      0.43307771392843
  H   2.65891725828275      0.29662102377619      0.20825645656069
  H   1.42198109288108      0.24735715007492      1.47253299460610
  H   1.45811623170175      1.59084583986593      0.29556441112506
  N   -1.09406927564564     -0.16700698174575      1.17191563151354
  H   -2.06692349722231     -0.42117715717459      1.28601080293386
  H   -0.93455074870625      0.68612256359039      1.69259776842080
  C   -1.63189293561913     -0.81050226557916     -1.06358862424022
  N   -2.33870433197820     -1.51394266681298     -1.68243815424293
