14
Coordinates from ORCA-job run
  C   0.67810631412996      0.05331476489496     -0.63621293764748
  C   -0.86311738171285     -0.02675275091868     -0.55105414443615
  Cl  1.10142113483812      1.65501220241403     -1.32435034755956
  H   -1.25360318789609      0.15369108030317     -1.55844469934053
  H   1.02101695813182     -0.68165180032273     -1.36852615316601
  C   1.38119804032185     -0.14344147135759      0.69071212651977
  H   1.10362364602939      0.63815459314786      1.39982372369114
  H   1.12373171457451     -1.11932935918324      1.11111340987595
  H   2.46234854728438     -0.10121472175224      0.55513483972723
  N   -1.53216494062910      0.89611748509756      0.34617553778869
  H   -1.31148643669515      1.84921874740763      0.08546987306174
  H   -1.24728555772852      0.74384413472831      1.30528190932615
  C   -1.21788286567418     -1.40484548788073     -0.18194293468584
  N   -1.44490598497414     -2.51411741657832      0.12781979684489
