14
Coordinates from ORCA-job run
  C   0.70839709396571      0.05502765209828     -0.63589228231118
  C   -0.81552858042587     -0.02327963644358     -0.45677078668749
  Cl  1.09011099186310      1.66683174933897     -1.33423960989257
  H   -1.27037516051175      0.15547253700735     -1.44311638018964
  H   0.99823019777965     -0.66713118357926     -1.40200174522764
  C   1.48713770841977     -0.16201316975925      0.64403691839821
  H   1.27587954056401     -1.15991289994315      1.03695212300590
  H   2.55754597788501     -0.08547080456364      0.44887283784694
  H   1.20284171385812      0.57423314024817      1.39369627879853
  N   -1.26340550122857      0.90172926146516      0.57748128744355
  H   -2.25579592202615      0.78345895933092      0.74133503516719
  H   -1.11102750346883      1.85015341033464      0.25448361942294
  C   -1.16497009136805     -1.39440304369504     -0.06193960249660
  N   -1.43904046530614     -2.49569597183956      0.23810230672186
