14
Coordinates from ORCA-job run
  C   0.57740538118774      0.51010961585088      0.08870526989031
  C   -0.74805303270633     -0.08277331195010     -0.42426470673949
  Cl  0.32697712084788      1.20726747557191      1.71842398966414
  H   -0.53910656324209     -0.45985429927088     -1.43401703682853
  H   0.82406870034227      1.35554282139129     -0.56030963162539
  C   1.71088595009521     -0.49527706876040      0.12079377743551
  H   1.85553420314231     -0.92486098564000     -0.87507594634016
  H   2.64059539775626     -0.01443699413294      0.42719726240499
  H   1.49139258334583     -1.30159808498633      0.82241844211506
  N   -1.87915502007418      0.82108321599168     -0.52602272328387
  H   -2.06766677405802      1.24039394499664      0.37683622999630
  H   -1.66715501791024      1.56295805057346     -1.18258581824856
  C   -1.12572927239285     -1.24491233845980      0.39347091339258
  N   -1.40199365633380     -2.17364204117541      1.05542997816710
